
     RDKit          3D

 11 11  0  0  0  0  0  0  0  0999 V2000
   10.0930   -0.7090   22.5610 C   0  0  0  0  0  0  0  0  0  0  0  0
    9.1970   -0.0850   21.4940 C   0  0  0  0  0  0  0  0  0  0  0  0
    7.0950   -0.1380   20.0970 C   0  0  0  0  0  0  0  0  0  0  0  0
    7.4670   -0.2020   18.7610 C   0  0  0  0  0  0  0  0  0  0  0  0
    5.5850    0.9230   18.1010 C   0  0  0  0  0  0  0  0  0  0  0  0
    5.1320    1.0430   19.4080 C   0  0  0  0  0  0  0  0  0  0  0  0
    5.9020    0.4960   20.4350 C   0  0  0  0  0  0  0  0  0  0  0  0
    5.4610    0.5980   21.8930 C   0  0  0  0  0  0  0  0  0  0  0  0
    7.9490   -0.7270   21.1170 N   0  0  0  0  0  0  0  0  0  0  0  0
    6.7150    0.3200   17.8100 N   0  0  0  0  0  0  0  0  0  0  0  0
    9.5230    0.9280   20.9800 O   0  0  0  0  0  0  0  0  0  0  0  0
  2  1  1  0
  4  3  2  0
  6  5  1  0
  7  6  2  0
  7  3  1  0
  8  7  1  0
  9  3  1  0
  9  2  1  0
 10  5  2  0
 10  4  1  0
 11  2  2  0
M  END
