
     RDKit          3D

 14 14  0  0  0  0  0  0  0  0999 V2000
   13.5580   -2.3850   24.3300 C   0  0  0  0  0  0  0  0  0  0  0  0
   13.0690   -1.0890   24.5760 O   0  0  0  0  0  0  0  0  0  0  0  0
   13.1900   -0.1570   23.5350 C   0  0  0  0  0  0  0  0  0  0  0  0
   13.8890   -0.3730   22.6080 O   0  0  0  0  0  0  0  0  0  0  0  0
   12.4300    1.1650   23.6120 C   0  0  0  0  0  0  0  0  0  0  0  0
   11.2100    1.2350   24.2700 C   0  0  0  0  0  0  0  0  0  0  0  0
   10.5330    2.4450   24.3440 C   0  0  0  0  0  0  0  0  0  0  0  0
   11.0840    3.5780   23.7550 C   0  0  0  0  0  0  0  0  0  0  0  0
   12.3040    3.5050   23.0970 C   0  0  0  0  0  0  0  0  0  0  0  0
   12.9750    2.2990   23.0300 C   0  0  0  0  0  0  0  0  0  0  0  0
   10.2200    5.1650   23.8450 S   0  0  2  0  0  0  0  0  0  0  0  0
   11.0940    6.2690   23.4350 O   0  0  0  0  0  0  0  0  0  0  0  0
    9.9270    5.5030   25.2390 O   0  0  0  0  0  0  0  0  0  0  0  0
    8.8000    5.1360   22.8950 N   0  0  0  0  0  0  0  0  0  0  0  0
  1  2  1  0
  2  3  1  0
  3  4  2  0
  3  5  1  0
  5  6  2  0
  5 10  1  0
  6  7  1  0
 10  9  2  0
  7  8  2  0
  8  9  1  0
  8 11  1  0
 11 12  2  0
 11 13  2  0
 11 14  1  6
M  END
