
     RDKit          3D

 18 19  0  0  0  0  0  0  0  0999 V2000
    8.5030    0.6580   24.9390 N   0  0  0  0  0  0  0  0  0  0  0  0
    7.7590    1.4180   24.0350 C   0  0  0  0  0  0  0  0  0  0  0  0
    8.2320    2.4160   23.4670 O   0  0  0  0  0  0  0  0  0  0  0  0
    9.8880    0.9910   25.2660 C   0  0  0  0  0  0  0  0  0  0  0  0
    4.1020    0.3090   24.7480 C   0  0  0  0  0  0  0  0  0  0  0  0
    4.2750    1.0020   22.4760 C   0  0  0  0  0  0  0  0  0  0  0  0
    5.6700    1.6100   22.7210 C   0  0  0  0  0  0  0  0  0  0  0  0
   10.8080    0.3670   24.2550 C   0  0  0  0  0  0  0  0  0  0  0  0
   11.9720    1.0270   23.8700 C   0  0  0  0  0  0  0  0  0  0  0  0
   12.8210    0.4480   22.9310 C   0  0  0  0  0  0  0  0  0  0  0  0
   12.4860   -0.7890   22.3690 C   0  0  0  0  0  0  0  0  0  0  0  0
   13.3240   -1.3620   21.3880 C   0  0  0  0  0  0  0  0  0  0  0  0
   11.3260   -1.4570   22.7540 C   0  0  0  0  0  0  0  0  0  0  0  0
   10.4890   -0.8790   23.6990 C   0  0  0  0  0  0  0  0  0  0  0  0
    5.5340    0.8070   25.0500 C   0  0  0  0  0  0  0  0  0  0  0  0
   14.0270   -1.7990   20.5870 N   0  0  0  0  0  0  0  0  0  0  0  0
    6.3900    0.9200   23.8240 N   0  0  0  0  0  0  0  0  0  0  0  0
    3.5290    1.0370   23.6760 O   0  0  0  0  0  0  0  0  0  0  0  0
  2  1  1  0
  3  2  2  0
  4  1  1  0
  7  6  1  0
  8  4  1  0
  9  8  2  0
 10  9  1  0
 11 10  2  0
 12 11  1  0
 13 11  1  0
 14  8  1  0
 14 13  2  0
 15  5  1  0
 16 12  3  0
 17 15  1  0
 17  7  1  0
 17  2  1  0
 18  6  1  0
 18  5  1  0
M  END
