
     RDKit          3D

 16 17  0  0  0  0  0  0  0  0999 V2000
    8.4490    2.3010   22.7710 O   0  0  0  0  0  0  0  0  0  0  0  0
    9.7550    1.7280   22.5960 S   0  0  1  0  0  0  0  0  0  0  0  0
   10.2930    1.6650   21.2670 O   0  0  0  0  0  0  0  0  0  0  0  0
   10.8860    2.5950   23.6160 C   0  0  0  0  0  0  0  0  0  0  0  0
    9.7330    0.0890   23.2590 C   0  0  0  0  0  0  0  0  0  0  0  0
    9.4890   -0.0940   24.6090 C   0  0  0  0  0  0  0  0  0  0  0  0
    9.3310   -1.3730   25.1060 C   0  0  0  0  0  0  0  0  0  0  0  0
    9.4280   -2.4810   24.2700 C   0  0  0  0  0  0  0  0  0  0  0  0
    9.7160   -2.2770   22.9190 C   0  0  0  0  0  0  0  0  0  0  0  0
    9.8710   -0.9990   22.4130 C   0  0  0  0  0  0  0  0  0  0  0  0
    9.1950   -3.7690   24.7680 N   0  0  0  0  0  0  0  0  0  0  0  0
    8.8800   -3.9660   26.1900 C   0  0  0  0  0  0  0  0  0  0  0  0
    8.1720   -5.2900   26.4020 C   0  0  0  0  0  0  0  0  0  0  0  0
    8.9550   -6.3950   25.8070 N   0  0  0  0  0  0  0  0  0  0  0  0
    9.2180   -6.1610   24.3760 C   0  0  0  0  0  0  0  0  0  0  0  0
    9.9840   -4.8720   24.2140 C   0  0  0  0  0  0  0  0  0  0  0  0
  2  1  2  0
  3  2  2  0
  2  4  1  1
  5  2  1  0
  6  5  2  0
  7  6  1  0
  8  7  2  0
  9  8  1  0
 10  9  2  0
 10  5  1  0
 11  8  1  0
 12 11  1  0
 13 12  1  0
 14 13  1  0
 15 14  1  0
 16 15  1  0
 16 11  1  0
M  END
