
     RDKit          3D

 18 19  0  0  0  0  0  0  0  0999 V2000
   13.1400   -1.0370   22.5780 C   0  0  0  0  0  0  0  0  0  0  0  0
   12.3430   -1.3000   23.7760 N   0  0  0  0  0  0  0  0  0  0  0  0
    7.8720   -2.3040   25.6020 O   0  0  0  0  0  0  0  0  0  0  0  0
   11.6320   -0.1000   24.2070 C   0  0  0  0  0  0  0  0  0  0  0  0
    9.9800   -1.4860   25.3830 N   0  0  0  0  0  0  0  0  0  0  0  0
    7.3580   -0.4630   27.6090 O   0  0  0  0  0  0  0  0  0  0  0  0
   10.9230   -0.3710   25.5120 C   0  0  0  0  0  0  0  0  0  0  0  0
   10.5890   -2.6860   24.8050 C   0  0  0  0  0  0  0  0  0  0  0  0
   11.3630   -2.3630   23.5450 C   0  0  0  0  0  0  0  0  0  0  0  0
    8.7000   -1.4160   25.8090 C   0  0  0  0  0  0  0  0  0  0  0  0
    8.2840   -0.1670   26.5750 C   0  0  0  0  0  0  0  0  0  0  0  0
    6.9250    0.5880   28.3770 C   0  0  0  0  0  0  0  0  0  0  0  0
    7.6690    1.7530   28.5220 C   0  0  0  0  0  0  0  0  0  0  0  0
    7.1890    2.7790   29.3210 C   0  0  0  0  0  0  0  0  0  0  0  0
    5.9770    2.6790   29.9760 C   0  0  0  0  0  0  0  0  0  0  0  0
    5.4670    3.7960   30.8400 C   0  0  0  0  0  0  0  0  0  0  0  0
    5.2500    1.5140   29.8190 C   0  0  0  0  0  0  0  0  0  0  0  0
    5.7090    0.4690   29.0320 C   0  0  0  0  0  0  0  0  0  0  0  0
  1  2  1  0
  2  4  1  0
  2  9  1  0
  4  7  1  0
  9  8  1  0
  3 10  1  0
 10  5  1  0
 10 11  1  0
  7  5  1  0
  5  8  1  0
  6 11  1  0
  6 12  1  0
 12 13  1  0
 12 18  1  0
 13 14  1  0
 18 17  1  0
 14 15  1  0
 15 16  1  0
 15 17  1  0
M  END
$$$$
