
     RDKit          3D

 19 21  0  0  0  0  0  0  0  0999 V2000
   13.7860   -1.3180   23.5930 C   0  0  0  0  0  0  0  0  0  0  0  0
    5.8150    0.8080   18.7500 C   0  0  0  0  0  0  0  0  0  0  0  0
    4.0210    1.8800   19.6100 C   0  0  0  0  0  0  0  0  0  0  0  0
    4.3870    1.5620   20.9150 C   0  0  0  0  0  0  0  0  0  0  0  0
    5.5360    0.8310   21.1360 C   0  0  0  0  0  0  0  0  0  0  0  0
    6.2830    0.4300   20.0230 C   0  0  0  0  0  0  0  0  0  0  0  0
   11.5220   -1.8790   22.9830 C   0  0  0  0  0  0  0  0  0  0  0  0
   10.0680   -1.4940   23.1220 C   0  0  0  0  0  0  0  0  0  0  0  0
   10.7110    0.8250   23.3520 C   0  0  0  0  0  0  0  0  0  0  0  0
   12.1620    0.4250   23.2300 C   0  0  0  0  0  0  0  0  0  0  0  0
    9.1190    0.2040   21.5690 C   0  0  0  0  0  0  0  0  0  0  0  0
    8.3620   -0.9080   20.8580 C   0  0  0  0  0  0  0  0  0  0  0  0
    7.4860   -0.3160   19.8060 C   0  0  0  0  0  0  0  0  0  0  0  0
    7.6940   -0.3430   18.4600 C   0  0  0  0  0  0  0  0  0  0  0  0
   12.3770   -0.9420   23.7140 N   0  0  0  0  0  0  0  0  0  0  0  0
    9.8830   -0.1320   22.6240 N   0  0  0  0  0  0  0  0  0  0  0  0
    6.6910    0.3330   17.8190 N   0  0  0  0  0  0  0  0  0  0  0  0
    4.7090    1.5290   18.5160 N   0  0  0  0  0  0  0  0  0  0  0  0
    9.0430    1.3620   21.1650 O   0  0  0  0  0  0  0  0  0  0  0  0
  4  3  1  0
  5  4  1  0
  6  5  1  0
  6  2  1  0
  8  7  1  0
 10  9  1  0
 12 11  1  0
 13 12  1  0
 13  6  1  0
 14 13  1  0
 15 10  1  0
 15  7  1  0
 15  1  1  0
 16 11  1  0
 16  9  1  0
 16  8  1  0
 17 14  1  0
 17  2  1  0
 18  3  1  0
 18  2  1  0
 19 11  1  0
M  END
$$$$
