
     RDKit          3D

 20 20  0  0  0  0  0  0  0  0999 V2000
    7.6060    4.9760   22.5440 C   0  0  0  0  0  0  0  0  0  0  0  0
    7.8910    2.5950   22.4210 N   0  0  0  0  0  0  0  0  0  0  0  0
    6.2020    3.3840   23.6380 O   0  0  0  0  0  0  0  0  0  0  0  0
    7.1770    3.5960   22.9270 C   0  0  0  0  0  0  0  0  0  0  0  0
    9.0050   -0.8400   22.6010 N   0  0  0  0  0  0  0  0  0  0  0  0
    5.6230    0.7690   16.9070 O   0  0  0  0  0  0  0  0  0  0  0  0
    7.7690    1.2240   22.8970 C   0  0  1  0  0  0  0  0  0  0  0  0
    9.7730    1.0210   21.6000 O   0  0  0  0  0  0  0  0  0  0  0  0
    6.4320    0.5800   22.4950 C   0  0  0  0  0  0  0  0  0  0  0  0
    6.1830    0.6200   21.0070 C   0  0  0  0  0  0  0  0  0  0  0  0
    5.2950    1.5290   20.4500 C   0  0  0  0  0  0  0  0  0  0  0  0
    5.0870    1.5870   19.0820 C   0  0  0  0  0  0  0  0  0  0  0  0
    5.7810    0.7250   18.2510 C   0  0  0  0  0  0  0  0  0  0  0  0
    6.6730   -0.1810   18.7840 C   0  0  0  0  0  0  0  0  0  0  0  0
    6.8660   -0.2300   20.1510 C   0  0  0  0  0  0  0  0  0  0  0  0
    8.9490    0.4560   22.3170 C   0  0  0  0  0  0  0  0  0  0  0  0
    9.8930   -1.7230   21.8760 C   0  0  0  0  0  0  0  0  0  0  0  0
   11.2630   -1.5820   22.3740 C   0  0  0  0  0  0  0  0  0  0  0  0
   12.3680   -1.6290   22.8340 C   0  0  0  0  0  0  0  0  0  0  0  0
   14.0890   -1.9060   23.6670 Br  0  0  0  0  0  0  0  0  0  0  0  0
  1  4  1  0
  4  2  1  0
  4  3  2  0
  2  7  1  0
  7  9  1  6
  7 16  1  0
  5 16  1  0
  5 17  1  0
 16  8  2  0
 17 18  1  0
  6 13  1  0
 13 12  2  0
 13 14  1  0
  9 10  1  0
 10 11  2  0
 10 15  1  0
 11 12  1  0
 15 14  2  0
 18 19  3  0
 19 20  1  0
M  END
