
     RDKit          3D

 16 17  0  0  0  0  0  0  0  0999 V2000
    8.6540   -0.2620   21.3570 C   0  0  0  0  0  0  0  0  0  0  0  0
   10.5810   -0.5230   22.8270 C   0  0  0  0  0  0  0  0  0  0  0  0
   10.6210    0.3060   23.9300 C   0  0  0  0  0  0  0  0  0  0  0  0
   11.8280    0.8130   24.3440 C   0  0  0  0  0  0  0  0  0  0  0  0
   12.9850    0.4970   23.6470 C   0  0  0  0  0  0  0  0  0  0  0  0
   12.9370   -0.3320   22.5390 C   0  0  0  0  0  0  0  0  0  0  0  0
   11.7230   -0.8390   22.1180 C   0  0  0  0  0  0  0  0  0  0  0  0
    6.6650    0.0110   19.8650 C   0  0  0  0  0  0  0  0  0  0  0  0
    5.4620    0.6370   20.1500 C   0  0  0  0  0  0  0  0  0  0  0  0
    4.8340    1.3010   19.1090 C   0  0  0  0  0  0  0  0  0  0  0  0
    5.4250    1.2710   17.8510 C   0  0  0  0  0  0  0  0  0  0  0  0
    7.2060    0.0410   18.5920 C   0  0  0  0  0  0  0  0  0  0  0  0
    9.2930   -0.9950   22.4230 N   0  0  0  0  0  0  0  0  0  0  0  0
    7.3450   -0.6820   20.9270 N   0  0  0  0  0  0  0  0  0  0  0  0
    6.5730    0.6730   17.6390 N   0  0  0  0  0  0  0  0  0  0  0  0
    9.2090    0.6560   20.8490 O   0  0  0  0  0  0  0  0  0  0  0  0
  3  2  2  0
  4  3  1  0
  5  4  2  0
  6  5  1  0
  7  2  1  0
  7  6  2  0
  9  8  2  0
 10  9  1  0
 11 10  2  0
 12  8  1  0
 13  1  1  0
 13  2  1  0
 14  8  1  0
 14  1  1  0
 15 11  1  0
 15 12  2  0
 16  1  2  0
M  END
