
     RDKit          3D

 16 17  0  0  0  0  0  0  0  0999 V2000
    8.9570    6.2360   22.6130 C   0  0  0  0  0  0  0  0  0  0  0  0
   10.2360    5.9390   23.3860 C   0  0  0  0  0  0  0  0  0  0  0  0
   10.2730    6.1350   24.5490 O   0  0  0  0  0  0  0  0  0  0  0  0
   11.3900    5.4060   22.6820 N   0  0  0  0  0  0  0  0  0  0  0  0
   12.6290    5.0780   23.3590 C   0  0  0  0  0  0  0  0  0  0  0  0
   13.0100    3.6480   22.9670 C   0  0  0  0  0  0  0  0  0  0  0  0
   12.0230    2.5650   23.4310 C   0  0  0  0  0  0  0  0  0  0  0  0
   10.8960    2.7450   24.2170 C   0  0  0  0  0  0  0  0  0  0  0  0
   10.3070    1.5680   24.3840 N   0  0  0  0  0  0  0  0  0  0  0  0
   11.0020    0.5910   23.7350 C   0  0  0  0  0  0  0  0  0  0  0  0
   10.7760   -0.8060   23.6160 C   0  0  0  0  0  0  0  0  0  0  0  0
   11.6610   -1.5870   22.8780 C   0  0  0  0  0  0  0  0  0  0  0  0
   12.7650   -0.9950   22.2560 C   0  0  0  0  0  0  0  0  0  0  0  0
   12.9870    0.3760   22.3790 C   0  0  0  0  0  0  0  0  0  0  0  0
   12.0870    1.1800   23.1300 C   0  0  0  0  0  0  0  0  0  0  0  0
   13.6360   -1.7520   21.5310 F   0  0  0  0  0  0  0  0  0  0  0  0
  1  2  1  0
  2  3  1  0
  2  4  1  0
  4  5  1  0
  5  6  1  0
  6  7  1  0
  7  8  1  0
  7 15  1  0
  8  9  1  0
 15 10  1  0
 15 14  1  0
  9 10  1  0
 10 11  1  0
 11 12  1  0
 12 13  1  0
 13 14  1  0
 13 16  1  0
M  END
$$$$
