
     RDKit          3D

 13 14  0  0  0  0  0  0  0  0999 V2000
    9.1860   -4.2070   27.8190 O   0  0  0  0  0  0  0  0  0  0  0  0
    9.0690   -4.8090   26.5540 C   0  0  2  0  0  0  0  0  0  0  0  0
   10.3110   -4.6580   25.8370 C   0  0  0  0  0  0  0  0  0  0  0  0
   10.5480   -3.2520   25.2780 C   0  0  0  0  0  0  0  0  0  0  0  0
    9.4400   -2.6810   24.5510 N   0  0  0  0  0  0  0  0  0  0  0  0
    9.5960   -1.4940   24.2470 C   0  0  0  0  0  0  0  0  0  0  0  0
   10.9740   -1.1360   23.6720 C   0  0  0  0  0  0  0  0  0  0  0  0
   11.8760   -0.0240   24.1990 C   0  0  0  0  0  0  0  0  0  0  0  0
   13.0900    0.0280   23.4360 C   0  0  0  0  0  0  0  0  0  0  0  0
   13.0620   -1.1070   22.2830 S   0  0  0  0  0  0  0  0  0  0  0  0
   11.6200   -1.7800   22.5680 C   0  0  0  0  0  0  0  0  0  0  0  0
    8.2240   -2.8280   25.3310 C   0  0  0  0  0  0  0  0  0  0  0  0
    7.9700   -4.2630   25.8020 C   0  0  0  0  0  0  0  0  0  0  0  0
  2  1  1  1
  2  3  1  0
  2 13  1  0
  3  4  1  0
 13 12  1  0
  4  5  1  0
  5  6  1  0
  5 12  1  0
  6  7  1  0
  7  8  1  0
  7 11  1  0
  8  9  1  0
 11 10  1  0
  9 10  1  0
M  END
$$$$
