
     RDKit          3D

 13 13  0  0  0  0  0  0  0  0999 V2000
    9.8790   -5.4960   26.1730 C   0  0  0  0  0  0  0  0  0  0  0  0
    8.4790   -4.3410   26.0680 S   0  0  1  0  0  0  0  0  0  0  0  0
    7.1910   -5.0190   26.2290 O   0  0  0  0  0  0  0  0  0  0  0  0
    8.4340   -3.4430   27.2120 O   0  0  0  0  0  0  0  0  0  0  0  0
    8.4960   -3.4980   24.5920 N   0  0  0  0  0  0  0  0  0  0  0  0
    9.7540   -3.0340   24.0580 C   0  0  0  0  0  0  0  0  0  0  0  0
    9.5680   -1.8260   23.1510 C   0  0  0  0  0  0  0  0  0  0  0  0
   10.8760   -1.0500   23.1440 C   0  0  0  0  0  0  0  0  0  0  0  0
   11.9060   -1.4610   22.3160 C   0  0  0  0  0  0  0  0  0  0  0  0
   13.1060   -0.7790   22.3180 C   0  0  0  0  0  0  0  0  0  0  0  0
   13.2770    0.3180   23.1500 C   0  0  0  0  0  0  0  0  0  0  0  0
   12.2420    0.7320   23.9810 C   0  0  0  0  0  0  0  0  0  0  0  0
   11.0390    0.0410   23.9830 C   0  0  0  0  0  0  0  0  0  0  0  0
  2  1  1  1
  2  3  2  0
  2  4  2  0
  2  5  1  0
  5  6  1  0
  6  7  1  0
  7  8  1  0
  8  9  2  0
  8 13  1  0
  9 10  1  0
 13 12  2  0
 10 11  2  0
 11 12  1  0
M  END
