
     RDKit          3D

 18 19  0  0  0  0  0  0  0  0999 V2000
    1.5000    3.7700   25.2180 C   0  0  0  0  0  0  0  0  0  0  0  0
    0.5020    4.4780   25.8760 C   0  0  0  0  0  0  0  0  0  0  0  0
   -0.8050    4.0130   25.9080 C   0  0  0  0  0  0  0  0  0  0  0  0
   -1.1250    2.8240   25.2730 C   0  0  0  0  0  0  0  0  0  0  0  0
   -0.1350    2.1140   24.6050 C   0  0  0  0  0  0  0  0  0  0  0  0
    1.1800    2.5770   24.5780 C   0  0  0  0  0  0  0  0  0  0  0  0
    2.2360    1.7630   23.8310 C   0  0  0  0  0  0  0  0  0  0  0  0
    4.3820    1.6600   22.4500 C   0  0  0  0  0  0  0  0  0  0  0  0
    3.8870    1.5920   21.0050 C   0  0  0  0  0  0  0  0  0  0  0  0
    4.8870    1.1170   19.9470 C   0  0  0  0  0  0  0  0  0  0  0  0
    5.8980    0.1920   20.2110 C   0  0  0  0  0  0  0  0  0  0  0  0
    6.7430   -0.1740   19.1630 C   0  0  0  0  0  0  0  0  0  0  0  0
    5.6540    1.1980   17.6920 C   0  0  0  0  0  0  0  0  0  0  0  0
    4.7740    1.6210   18.6740 C   0  0  0  0  0  0  0  0  0  0  0  0
    2.7830    4.2550   25.2110 F   0  0  0  0  0  0  0  0  0  0  0  0
    3.3750    2.4160   23.1950 N   0  0  0  0  0  0  0  0  0  0  0  0
    6.6060    0.3300   17.9440 N   0  0  0  0  0  0  0  0  0  0  0  0
    2.1040    0.5830   23.7720 O   0  0  0  0  0  0  0  0  0  0  0  0
  2  1  2  0
  3  2  1  0
  4  3  2  0
  5  4  1  0
  6  5  2  0
  6  1  1  0
  7  6  1  0
  9  8  1  0
 10  9  1  0
 11 10  2  0
 12 11  1  0
 14 10  1  0
 14 13  2  0
 15  1  1  0
 16  8  1  0
 16  7  1  0
 17 13  1  0
 17 12  2  0
 18  7  2  0
M  END
