
     RDKit          3D

 13 14  0  0  0  0  0  0  0  0999 V2000
   10.1640    3.1550   22.2310 N   0  0  0  0  0  0  0  0  0  0  0  0
    9.3780    1.9140   22.2310 C   0  0  0  0  0  0  0  0  0  0  0  0
    9.0490    1.4060   21.1790 O   0  0  0  0  0  0  0  0  0  0  0  0
    8.9910    1.2610   23.6000 C   0  0  1  0  0  0  0  0  0  0  0  0
    7.6660    1.1640   23.7490 C   0  0  0  0  0  0  0  0  0  0  0  0
    7.2810   -0.3480   23.3420 C   0  0  0  0  0  0  0  0  0  0  0  0
    8.6530   -1.0390   23.0140 C   0  0  0  0  0  0  0  0  0  0  0  0
    9.5700   -0.2990   23.6920 C   0  0  1  0  0  0  0  0  0  0  0  0
   10.9990   -0.3840   23.1000 C   0  0  0  0  0  0  0  0  0  0  0  0
   12.0010    0.5440   23.4760 C   0  0  0  0  0  0  0  0  0  0  0  0
   13.2590    0.3340   22.8580 C   0  0  0  0  0  0  0  0  0  0  0  0
   13.0720   -1.0670   21.8240 S   0  0  0  0  0  0  0  0  0  0  0  0
   11.3830   -1.3830   22.1840 C   0  0  0  0  0  0  0  0  0  0  0  0
  1  2  1  0
  2  3  2  0
  4  2  1  6
  4  5  1  0
  4  8  1  0
  5  6  1  0
  8  7  1  0
  8  9  1  6
  6  7  1  0
  9 10  1  0
  9 13  2  0
 10 11  2  0
 13 12  1  0
 11 12  1  0
M  END
