
     RDKit          3D

 19 21  0  0  0  0  0  0  0  0999 V2000
   13.6610   -1.2680   23.6190 C   0  0  0  0  0  0  0  0  0  0  0  0
   12.2530   -0.8910   23.7300 N   0  0  0  0  0  0  0  0  0  0  0  0
    8.9370    1.3880   21.1440 O   0  0  0  0  0  0  0  0  0  0  0  0
   11.4010   -1.8340   23.0010 C   0  0  0  0  0  0  0  0  0  0  0  0
    9.7620   -0.0910   22.6260 N   0  0  0  0  0  0  0  0  0  0  0  0
    9.9470   -1.4490   23.1340 C   0  0  0  0  0  0  0  0  0  0  0  0
    6.5920    0.3490   17.8090 N   0  0  0  0  0  0  0  0  0  0  0  0
   10.5880    0.8720   23.3490 C   0  0  0  0  0  0  0  0  0  0  0  0
    4.6010    1.5370   18.4940 N   0  0  0  0  0  0  0  0  0  0  0  0
   12.0400    0.4720   23.2330 C   0  0  0  0  0  0  0  0  0  0  0  0
    9.0060    0.2350   21.5630 C   0  0  0  0  0  0  0  0  0  0  0  0
    8.2480   -0.8830   20.8620 C   0  0  0  0  0  0  0  0  0  0  0  0
    7.3770   -0.2970   19.8020 C   0  0  0  0  0  0  0  0  0  0  0  0
    7.5930   -0.3250   18.4570 C   0  0  0  0  0  0  0  0  0  0  0  0
    5.7080    0.8210   18.7340 C   0  0  0  0  0  0  0  0  0  0  0  0
    3.9060    1.8870   19.5850 C   0  0  0  0  0  0  0  0  0  0  0  0
    4.2660    1.5710   20.8920 C   0  0  0  0  0  0  0  0  0  0  0  0
    5.4170    0.8470   21.1190 C   0  0  0  0  0  0  0  0  0  0  0  0
    6.1710    0.4460   20.0100 C   0  0  0  0  0  0  0  0  0  0  0  0
  1  2  1  0
  2  4  1  0
  2 10  1  0
  4  6  1  0
 10  8  1  0
  3 11  2  0
 11  5  1  0
 11 12  1  0
  6  5  1  0
  5  8  1  0
  7 15  2  0
  7 14  1  0
 14 13  2  0
 15  9  1  0
 15 19  1  0
  9 16  1  0
 16 17  2  0
 12 13  1  0
 13 19  1  0
 19 18  2  0
 17 18  1  0
M  END
