
     RDKit          3D

 16 17  0  0  0  0  0  0  0  0999 V2000
    8.8770    0.2420   21.7100 C   0  0  0  0  0  0  0  0  0  0  0  0
    9.4290   -0.2440   23.0440 C   0  0  0  0  0  0  0  0  0  0  0  0
   10.9460   -0.1510   23.1110 C   0  0  2  0  0  0  0  0  0  0  0  0
   11.5980   -1.0970   22.1030 C   0  0  0  0  0  0  0  0  0  0  0  0
   12.8440   -1.7930   22.6460 C   0  0  0  0  0  0  0  0  0  0  0  0
   13.6560   -0.9610   23.6290 C   0  0  0  0  0  0  0  0  0  0  0  0
   12.8280   -0.2530   24.6950 C   0  0  0  0  0  0  0  0  0  0  0  0
   11.3300   -0.4770   24.5430 C   0  0  0  0  0  0  0  0  0  0  0  0
    7.0050    0.1230   20.1050 C   0  0  0  0  0  0  0  0  0  0  0  0
    5.7510    0.7150   20.2210 C   0  0  0  0  0  0  0  0  0  0  0  0
    5.1500    1.1460   19.0440 C   0  0  0  0  0  0  0  0  0  0  0  0
    5.8310    0.9690   17.8480 C   0  0  0  0  0  0  0  0  0  0  0  0
    7.6440   -0.0180   18.8880 C   0  0  0  0  0  0  0  0  0  0  0  0
    7.6200   -0.3130   21.3220 N   0  0  0  0  0  0  0  0  0  0  0  0
    7.0310    0.4080   17.8060 N   0  0  0  0  0  0  0  0  0  0  0  0
    9.4320    1.0350   21.0190 O   0  0  0  0  0  0  0  0  0  0  0  0
  2  1  1  0
  3  2  1  1
  4  3  1  0
  5  4  1  0
  6  5  1  0
  7  6  1  0
  8  7  1  0
  8  3  1  0
 10  9  1  0
 11 10  1  0
 12 11  1  0
 13  9  1  0
 14  9  1  0
 14  1  1  0
 15 13  1  0
 15 12  1  0
 16  1  1  0
M  END
$$$$
