
     RDKit          3D

 15 16  0  0  0  0  0  0  0  0999 V2000
    9.8470    1.5250   21.3510 N   0  0  0  0  0  0  0  0  0  0  0  0
    9.7070    0.5620   21.9640 C   0  0  0  0  0  0  0  0  0  0  0  0
    7.2440   -5.8010   25.4410 O   0  0  0  0  0  0  0  0  0  0  0  0
    9.5370   -0.5860   22.7580 C   0  0  1  0  0  0  0  0  0  0  0  0
   10.1540   -1.7310   22.3420 N   0  0  0  0  0  0  0  0  0  0  0  0
    8.8280   -0.4810   23.9430 C   0  0  0  0  0  0  0  0  0  0  0  0
    9.4740   -3.9720   25.2680 N   0  0  0  0  0  0  0  0  0  0  0  0
    8.7550   -1.5870   24.7840 C   0  0  0  0  0  0  0  0  0  0  0  0
    9.3960   -2.7930   24.4350 C   0  0  1  0  0  0  0  0  0  0  0  0
   10.0730   -2.7870   23.1700 C   0  0  0  0  0  0  0  0  0  0  0  0
    9.8390   -5.2930   24.6850 C   0  0  0  0  0  0  0  0  0  0  0  0
    8.8550   -5.8060   23.6270 C   0  0  0  0  0  0  0  0  0  0  0  0
    7.3880   -5.5890   24.0400 C   0  0  0  0  0  0  0  0  0  0  0  0
    7.2280   -4.6690   26.2760 C   0  0  0  0  0  0  0  0  0  0  0  0
    8.6430   -4.0740   26.4990 C   0  0  0  0  0  0  0  0  0  0  0  0
  1  2  1  0
  4  2  1  1
  4  5  1  0
  4  6  1  0
  3 13  1  0
  3 14  1  0
 13 12  1  0
 14 15  1  0
  5 10  1  0
  6  8  1  0
 10  9  1  0
  8  9  1  0
  9  7  1  1
  7 11  1  0
  7 15  1  0
 11 12  1  0
M  END
$$$$
