
     RDKit          3D

 15 16  0  0  0  0  0  0  0  0999 V2000
    9.8850   -0.4000   24.9140 C   0  0  0  0  0  0  0  0  0  0  0  0
   11.0350   -0.3500   24.0440 N   0  0  0  0  0  0  0  0  0  0  0  0
   11.6730   -1.5800   23.6750 C   0  0  0  0  0  0  0  0  0  0  0  0
   12.6830   -1.4730   22.5730 C   0  0  0  0  0  0  0  0  0  0  0  0
   13.6350   -0.3200   22.8160 C   0  0  0  0  0  0  0  0  0  0  0  0
   12.8560    1.0130   23.0470 C   0  0  0  0  0  0  0  0  0  0  0  0
   13.4080    2.2430   22.6410 C   0  0  0  0  0  0  0  0  0  0  0  0
   12.6980    3.4290   22.8420 C   0  0  0  0  0  0  0  0  0  0  0  0
   11.4270    3.3640   23.4480 C   0  0  0  0  0  0  0  0  0  0  0  0
   10.8770    2.1510   23.8450 C   0  0  0  0  0  0  0  0  0  0  0  0
   11.5920    0.9560   23.6380 C   0  0  0  0  0  0  0  0  0  0  0  0
   10.4760    4.8640   23.7430 S   0  0  2  0  0  0  0  0  0  0  0  0
    9.9640    4.7880   25.1060 O   0  0  0  0  0  0  0  0  0  0  0  0
    9.2330    4.8990   22.9680 O   0  0  0  0  0  0  0  0  0  0  0  0
   11.4450    6.2380   23.4730 N   0  0  0  0  0  0  0  0  0  0  0  0
  1  2  1  0
  2  3  1  0
  2 11  1  0
  3  4  1  0
 11  6  2  0
 11 10  1  0
  4  5  1  0
  5  6  1  0
  6  7  1  0
  7  8  2  0
  8  9  1  0
  9 10  2  0
  9 12  1  0
 12 13  2  0
 12 14  2  0
 12 15  1  1
M  END
