
     RDKit          3D

 18 19  0  0  0  0  0  0  0  0999 V2000
    3.0170    1.3310   24.2360 O   0  0  0  0  0  0  0  0  0  0  0  0
    3.0520    2.1780   23.3930 C   0  0  0  0  0  0  0  0  0  0  0  0
    4.1930    2.3160   22.5030 N   0  0  0  0  0  0  0  0  0  0  0  0
    5.3250    1.4190   22.5760 C   0  0  0  0  0  0  0  0  0  0  0  0
    4.9940    0.1890   21.7350 C   0  0  0  0  0  0  0  0  0  0  0  0
    5.4150    0.3110   20.2710 C   0  0  0  0  0  0  0  0  0  0  0  0
    6.4820   -0.4590   19.8050 C   0  0  0  0  0  0  0  0  0  0  0  0
    6.8600   -0.3400   18.4740 C   0  0  0  0  0  0  0  0  0  0  0  0
    6.2220    0.4740   17.6640 N   0  0  0  0  0  0  0  0  0  0  0  0
    5.1900    1.2110   18.0800 C   0  0  0  0  0  0  0  0  0  0  0  0
    4.7430    1.1700   19.3970 C   0  0  0  0  0  0  0  0  0  0  0  0
    1.9740    3.1250   23.1900 N   0  0  0  0  0  0  0  0  0  0  0  0
    0.7790    3.1640   24.0060 C   0  0  1  0  0  0  0  0  0  0  0  0
    0.6740    4.6020   24.5210 C   0  0  0  0  0  0  0  0  0  0  0  0
   -0.6450    4.8530   25.2350 C   0  0  0  0  0  0  0  0  0  0  0  0
   -1.8170    4.5440   24.3130 C   0  0  0  0  0  0  0  0  0  0  0  0
   -1.7660    3.1150   23.7900 C   0  0  0  0  0  0  0  0  0  0  0  0
   -0.4170    2.7610   23.1560 C   0  0  0  0  0  0  0  0  0  0  0  0
  1  2  2  0
  2  3  1  0
  2 12  1  0
  3  4  1  0
 13 12  1  6
  4  5  1  0
  5  6  1  0
  6  7  2  0
  6 11  1  0
  7  8  1  0
 11 10  2  0
  8  9  2  0
  9 10  1  0
 13 14  1  0
 13 18  1  0
 14 15  1  0
 18 17  1  0
 15 16  1  0
 16 17  1  0
M  END
