
     RDKit          3D

 13 14  0  0  0  0  0  0  0  0999 V2000
    4.5260    8.1170   10.7760 N   0  0  0  0  0  0  0  0  0  0  0  0
    1.8920    9.9730    9.6030 C   0  0  0  0  0  0  0  0  0  0  0  0
    1.5500    9.2750   10.7610 O   0  0  0  0  0  0  0  0  0  0  0  0
    3.2580    9.4740    9.1010 C   0  0  2  0  0  0  0  0  0  0  0  0
    4.2310    9.3650   10.2570 C   0  0  0  0  0  0  0  0  0  0  0  0
    5.4300    8.0690   11.7930 C   0  0  0  0  0  0  0  0  0  0  0  0
    6.0570    9.2090   12.3260 C   0  0  0  0  0  0  0  0  0  0  0  0
    5.7340   10.4560   11.8020 C   0  0  0  0  0  0  0  0  0  0  0  0
    4.8180   10.5480   10.7680 C   0  0  0  0  0  0  0  0  0  0  0  0
    3.7930   10.3910    7.9930 C   0  0  0  0  0  0  0  0  0  0  0  0
    3.3000    9.8110    6.6660 C   0  0  0  0  0  0  0  0  0  0  0  0
    2.6100    8.4940    6.9870 C   0  0  0  0  0  0  0  0  0  0  0  0
    3.0840    8.1190    8.3900 C   0  0  0  0  0  0  0  0  0  0  0  0
  1  5  1  0
  1  6  1  0
  5  4  1  0
  5  9  1  0
  6  7  1  0
  2  3  1  0
  4  2  1  1
  4 10  1  0
  4 13  1  0
 10 11  1  0
 13 12  1  0
  9  8  1  0
  7  8  1  0
 11 12  1  0
M  END
$$$$
