
     RDKit          3D

  7  7  0  0  0  0  0  0  0  0999 V2000
    3.6710    2.1180   19.5320 N   0  0  0  0  0  0  0  0  0  0  0  0
    4.6400    1.2810   19.1300 C   0  0  0  0  0  0  0  0  0  0  0  0
    5.0800    0.2020   19.9390 C   0  0  0  0  0  0  0  0  0  0  0  0
    6.0070   -0.6730   19.5240 N   0  0  0  0  0  0  0  0  0  0  0  0
    6.5260   -0.4530   18.2680 C   0  0  0  0  0  0  0  0  0  0  0  0
    6.1930    0.5450   17.4290 N   0  0  0  0  0  0  0  0  0  0  0  0
    5.2540    1.4020   17.8540 C   0  0  0  0  0  0  0  0  0  0  0  0
  1  2  1  0
  2  3  1  0
  2  7  1  0
  3  4  1  0
  7  6  1  0
  4  5  1  0
  5  6  1  0
M  END
$$$$
