
     RDKit          3D

  7  7  0  0  0  0  0  0  0  0999 V2000
    3.7850    2.0230   19.5670 N   0  0  0  0  0  0  0  0  0  0  0  0
    4.7510    1.1870   19.1560 C   0  0  0  0  0  0  0  0  0  0  0  0
    5.1930    0.1020   19.9560 C   0  0  0  0  0  0  0  0  0  0  0  0
    6.1180   -0.7710   19.5310 N   0  0  0  0  0  0  0  0  0  0  0  0
    6.6310   -0.5440   18.2750 C   0  0  0  0  0  0  0  0  0  0  0  0
    6.2960    0.4610   17.4430 N   0  0  0  0  0  0  0  0  0  0  0  0
    5.3600    1.3160   17.8780 C   0  0  0  0  0  0  0  0  0  0  0  0
  1  2  1  0
  2  3  2  0
  2  7  1  0
  3  4  1  0
  7  6  2  0
  4  5  2  0
  5  6  1  0
M  END
