
     RDKit          3D

 13 14  0  0  0  0  0  0  0  0999 V2000
    9.0920   -4.8570   26.5210 C   0  0  2  0  0  0  0  0  0  0  0  0
   10.3340   -4.7060   25.8060 C   0  0  0  0  0  0  0  0  0  0  0  0
   10.5740   -3.2980   25.2520 C   0  0  0  0  0  0  0  0  0  0  0  0
    9.6260   -1.5340   24.2270 C   0  0  0  0  0  0  0  0  0  0  0  0
   11.0050   -1.1770   23.6540 C   0  0  0  0  0  0  0  0  0  0  0  0
   11.9090   -0.0680   24.1860 C   0  0  0  0  0  0  0  0  0  0  0  0
   13.1230   -0.0170   23.4230 C   0  0  0  0  0  0  0  0  0  0  0  0
   11.6500   -1.8180   22.5480 C   0  0  0  0  0  0  0  0  0  0  0  0
    8.2500   -2.8700   25.3050 C   0  0  0  0  0  0  0  0  0  0  0  0
    7.9930   -4.3060   25.7710 C   0  0  0  0  0  0  0  0  0  0  0  0
    9.4670   -2.7230   24.5270 N   0  0  0  0  0  0  0  0  0  0  0  0
    9.2090   -4.2610   27.7890 O   0  0  0  0  0  0  0  0  0  0  0  0
   13.0940   -1.1460   22.2660 S   0  0  0  0  0  0  0  0  0  0  0  0
  2  1  1  0
  3  2  1  0
  5  4  1  0
  6  5  1  0
  7  6  1  0
  8  5  1  0
 10  9  1  0
 10  1  1  0
 11  9  1  0
 11  4  1  0
 11  3  1  0
  1 12  1  1
 13  8  1  0
 13  7  1  0
M  END
$$$$
