
     RDKit          3D

 15 16  0  0  0  0  0  0  0  0999 V2000
    8.2740   -1.3460   20.7790 C   0  0  0  0  0  0  0  0  0  0  0  0
    7.3000   -2.0220   19.9120 N   0  0  0  0  0  0  0  0  0  0  0  0
    7.2160   -1.6320   18.4930 C   0  0  0  0  0  0  0  0  0  0  0  0
    6.3730   -0.3410   18.4060 C   0  0  0  0  0  0  0  0  0  0  0  0
    5.3930    0.0540   19.3210 C   0  0  0  0  0  0  0  0  0  0  0  0
    4.8870    1.2520   18.8900 C   0  0  0  0  0  0  0  0  0  0  0  0
    3.7870    2.0620   19.5780 C   0  0  0  0  0  0  0  0  0  0  0  0
    5.5230    1.5700   17.7710 O   0  0  0  0  0  0  0  0  0  0  0  0
    6.4450    0.6110   17.4620 N   0  0  0  0  0  0  0  0  0  0  0  0
    6.4090   -3.0460   20.4690 C   0  0  0  0  0  0  0  0  0  0  0  0
    5.6220   -3.5850   19.7570 O   0  0  0  0  0  0  0  0  0  0  0  0
    6.5070   -3.4030   21.8930 N   0  0  0  0  0  0  0  0  0  0  0  0
    5.6450   -4.4230   22.5100 C   0  0  2  0  0  0  0  0  0  0  0  0
    6.4200   -5.6060   23.0980 C   0  0  0  0  0  0  0  0  0  0  0  0
    5.5560   -5.8040   21.8470 C   0  0  0  0  0  0  0  0  0  0  0  0
  1  2  1  0
  2  3  1  0
  2 10  1  0
  3  4  1  0
 10 11  1  0
 10 12  1  0
  4  5  1  0
  4  9  1  0
  5  6  1  0
  9  8  1  0
  6  7  1  0
  6  8  1  0
 13 12  1  6
 13 14  1  0
 13 15  1  0
 14 15  1  0
M  END
$$$$
