
     RDKit          3D

 16 17  0  0  0  0  0  0  0  0999 V2000
    9.3560    1.0920   21.0090 O   0  0  0  0  0  0  0  0  0  0  0  0
    8.8010    0.3010   21.7030 C   0  0  0  0  0  0  0  0  0  0  0  0
    9.3520   -0.1770   23.0400 C   0  0  0  0  0  0  0  0  0  0  0  0
   10.8690   -0.0810   23.1080 C   0  0  2  0  0  0  0  0  0  0  0  0
   11.5250   -1.0300   22.1050 C   0  0  0  0  0  0  0  0  0  0  0  0
   12.7710   -1.7210   22.6540 C   0  0  0  0  0  0  0  0  0  0  0  0
   13.5790   -0.8830   23.6340 C   0  0  0  0  0  0  0  0  0  0  0  0
   12.7490   -0.1710   24.6960 C   0  0  0  0  0  0  0  0  0  0  0  0
   11.2510   -0.4000   24.5430 C   0  0  0  0  0  0  0  0  0  0  0  0
    7.5460   -0.2580   21.3140 N   0  0  0  0  0  0  0  0  0  0  0  0
    6.9320    0.1710   20.0950 C   0  0  0  0  0  0  0  0  0  0  0  0
    5.6770    0.7610   20.2070 C   0  0  0  0  0  0  0  0  0  0  0  0
    5.0770    1.1860   19.0270 C   0  0  0  0  0  0  0  0  0  0  0  0
    5.7600    1.0040   17.8320 C   0  0  0  0  0  0  0  0  0  0  0  0
    6.9610    0.4460   17.7950 N   0  0  0  0  0  0  0  0  0  0  0  0
    7.5740    0.0260   18.8800 C   0  0  0  0  0  0  0  0  0  0  0  0
  1  2  2  0
  2  3  1  0
  2 10  1  0
  4  3  1  1
 10 11  1  0
  4  5  1  0
  4  9  1  0
  5  6  1  0
  9  8  1  0
  6  7  1  0
  7  8  1  0
 11 12  2  0
 11 16  1  0
 12 13  1  0
 16 15  2  0
 13 14  2  0
 14 15  1  0
M  END
