
     RDKit          3D

  5  4  0  0  0  0  0  0  0  0999 V2000
   10.0940   -5.6910   25.1110 N   0  0  0  0  0  0  0  0  0  0  0  0
    8.6500   -3.4540   23.3660 C   0  0  0  0  0  0  0  0  0  0  0  0
    8.0410   -4.6920   24.0240 C   0  0  0  0  0  0  0  0  0  0  0  0
    8.4110   -4.9260   26.4530 N   0  0  0  0  0  0  0  0  0  0  0  0
    8.9290   -5.1410   25.1860 C   0  0  0  0  0  0  0  0  0  0  0  0
  1  5  2  0
  5  3  1  0
  5  4  1  0
  2  3  1  0
M  END
